<?xml version="1.0" encoding="UTF-8"?>

<!-- generated on 03/03/17 17:45:40 by SUMO netconvert Version 0.25.0
<?xml version="1.0" encoding="UTF-8"?>

<configuration xmlns:xsi="http://www.w3.org/2001/XMLSchema-instance" xsi:noNamespaceSchemaLocation="http://sumo.dlr.de/xsd/netconvertConfiguration.xsd">

    <input>
        <type-files value="C:\Program%20Files%20(x86)\DLR\Sumo\/data/typemap/osmNetconvert.typ.xml"/>
        <osm-files value="map.osm"/>
    </input>

    <output>
        <output-file value="net.net.xml"/>
    </output>

    <projection>
        <proj.utm value="true"/>
    </projection>

</configuration>
-->

<net version="0.25" xmlns:xsi="http://www.w3.org/2001/XMLSchema-instance" xsi:noNamespaceSchemaLocation="http://sumo.dlr.de/xsd/net_file.xsd">

    <location netOffset="-527294.88,-3839865.32" convBoundary="0.00,0.00,8801.72,4228.99" origBoundary="-86.701966,34.700450,-86.605736,34.738436" projParameter="+proj=utm +zone=16 +ellps=WGS84 +datum=WGS84 +units=m +no_defs"/>

    <type id="highway.bridleway" priority="1" numLanes="1" speed="2.78" allow="pedestrian" oneway="1" width="2.00"/>
    <type id="highway.bus_guideway" priority="1" numLanes="1" speed="8.33" allow="bus" oneway="1"/>
    <type id="highway.cycleway" priority="1" numLanes="1" speed="5.56" allow="bicycle" oneway="0" width="1.00"/>
    <type id="highway.footway" priority="1" numLanes="1" speed="8.33" allow="pedestrian" oneway="1" width="2.00"/>
    <type id="highway.ford" priority="1" numLanes="1" speed="2.78" allow="army" oneway="0"/>
    <type id="highway.living_street" priority="3" numLanes="1" speed="2.78" disallow="tram rail_urban rail rail_electric ship" oneway="0"/>
    <type id="highway.motorway" priority="13" numLanes="2" speed="44.44" allow="private emergency authority army vip passenger hov taxi bus coach delivery truck trailer motorcycle evehicle custom1 custom2" oneway="1"/>
    <type id="highway.motorway_link" priority="12" numLanes="1" speed="22.22" allow="private emergency authority army vip passenger hov taxi bus coach delivery truck trailer motorcycle evehicle custom1 custom2" oneway="1"/>
    <type id="highway.path" priority="1" numLanes="1" speed="2.78" allow="bicycle pedestrian" oneway="1" width="2.00"/>
    <type id="highway.pedestrian" priority="1" numLanes="1" speed="8.33" allow="pedestrian" oneway="1" width="2.00"/>
    <type id="highway.primary" priority="9" numLanes="2" speed="27.78" disallow="tram rail_urban rail rail_electric ship" oneway="0"/>
    <type id="highway.primary_link" priority="8" numLanes="1" speed="22.22" disallow="tram rail_urban rail rail_electric ship" oneway="0"/>
    <type id="highway.raceway" priority="14" numLanes="2" speed="83.33" allow="vip" oneway="0"/>
    <type id="highway.residential" priority="4" numLanes="1" speed="13.89" disallow="tram rail_urban rail rail_electric ship" oneway="0"/>
    <type id="highway.secondary" priority="7" numLanes="2" speed="27.78" disallow="tram rail_urban rail rail_electric ship" oneway="0"/>
    <type id="highway.secondary_link" priority="6" numLanes="1" speed="22.22" disallow="tram rail_urban rail rail_electric ship" oneway="0"/>
    <type id="highway.service" priority="2" numLanes="1" speed="5.56" allow="delivery bicycle pedestrian" oneway="0"/>
    <type id="highway.services" priority="1" numLanes="1" speed="8.33" disallow="tram rail_urban rail rail_electric ship" oneway="0"/>
    <type id="highway.stairs" priority="1" numLanes="1" speed="1.39" allow="pedestrian" oneway="1" width="2.00"/>
    <type id="highway.step" priority="1" numLanes="1" speed="1.39" allow="pedestrian" oneway="1" width="2.00"/>
    <type id="highway.steps" priority="1" numLanes="1" speed="1.39" allow="pedestrian" oneway="1" width="2.00"/>
    <type id="highway.tertiary" priority="6" numLanes="1" speed="22.22" disallow="tram rail_urban rail rail_electric ship" oneway="0"/>
    <type id="highway.tertiary_link" priority="5" numLanes="1" speed="22.22" disallow="tram rail_urban rail rail_electric ship" oneway="0"/>
    <type id="highway.track" priority="1" numLanes="1" speed="5.56" disallow="tram rail_urban rail rail_electric ship" oneway="0"/>
    <type id="highway.trunk" priority="11" numLanes="2" speed="27.78" disallow="tram rail_urban rail rail_electric bicycle pedestrian ship" oneway="0"/>
    <type id="highway.trunk_link" priority="10" numLanes="1" speed="22.22" disallow="tram rail_urban rail rail_electric bicycle pedestrian ship" oneway="0"/>
    <type id="highway.unclassified" priority="5" numLanes="1" speed="13.89" disallow="tram rail_urban rail rail_electric ship" oneway="0"/>
    <type id="highway.unsurfaced" priority="1" numLanes="1" speed="8.33" disallow="tram rail_urban rail rail_electric ship" oneway="0"/>
    <type id="railway.light_rail" priority="15" numLanes="1" speed="27.78" allow="rail_urban" oneway="1"/>
    <type id="railway.preserved" priority="15" numLanes="1" speed="27.78" allow="rail" oneway="1"/>
    <type id="railway.rail" priority="15" numLanes="1" speed="83.33" allow="rail rail_electric" oneway="1"/>
    <type id="railway.subway" priority="15" numLanes="1" speed="27.78" allow="rail_urban" oneway="1"/>
    <type id="railway.tram" priority="15" numLanes="1" speed="13.89" allow="tram" oneway="1"/>

    <edge id=":1993693541_0" function="internal">
        <lane id=":1993693541_0_0" index="0" allow="delivery bicycle pedestrian" speed="5.56" length="5.00" shape="5748.92,2127.44 5747.31,2132.17"/>
    </edge>
    <edge id=":1993693541_1" function="internal">
        <lane id=":1993693541_1_0" index="0" allow="delivery bicycle pedestrian" speed="5.56" length="4.82" shape="5748.92,2127.44 5747.74,2128.34 5746.83,2128.47 5746.18,2127.81 5745.80,2126.38"/>
    </edge>
    <edge id=":1993693541_2" function="internal">
        <lane id=":1993693541_2_0" index="0" allow="delivery bicycle pedestrian" speed="5.56" length="5.00" shape="5744.19,2131.11 5745.80,2126.38"/>
    </edge>
    <edge id=":1993693541_3" function="internal">
        <lane id=":1993693541_3_0" index="0" allow="delivery bicycle pedestrian" speed="5.56" length="4.82" shape="5744.19,2131.11 5745.37,2130.21 5746.28,2130.08 5746.93,2130.74 5747.31,2132.17"/>
    </edge>
    <edge id=":1993693545_0" function="internal">
        <lane id=":1993693545_0_0" index="0" allow="delivery bicycle pedestrian" speed="5.56" length="5.42" shape="5896.05,2594.14 5890.64,2593.89"/>
    </edge>
    <edge id=":1993693545_1" function="internal">
        <lane id=":1993693545_1_0" index="0" allow="delivery bicycle pedestrian" speed="5.56" length="2.51" shape="5896.05,2594.14 5894.83,2593.29 5894.43,2592.46 5894.48,2592.37"/>
    </edge>
    <edge id=":1993693545_4" function="internal">
        <lane id=":1993693545_4_0" index="0" speed="5.56" length="2.31" shape="5894.48,2592.37 5894.86,2591.64 5896.12,2590.84"/>
    </edge>
    <edge id=":1993693545_2" function="internal">
        <lane id=":1993693545_2_0" index="0" allow="delivery bicycle pedestrian" speed="5.56" length="5.22" shape="5890.90,2590.60 5896.12,2590.84"/>
    </edge>
    <edge id=":1993693545_3" function="internal">
        <lane id=":1993693545_3_0" index="0" allow="delivery bicycle pedestrian" speed="5.56" length="2.41" shape="5890.90,2590.60 5892.07,2591.52 5892.42,2592.38"/>
    </edge>
    <edge id=":1993693545_5" function="internal">
        <lane id=":1993693545_5_0" index="0" speed="5.56" length="2.41" shape="5892.42,2592.38 5891.94,2593.17 5890.64,2593.89"/>
    </edge>
    <edge id=":1993693549_0" function="internal">
        <lane id=":1993693549_0_0" index="0" allow="delivery bicycle pedestrian" speed="5.56" length="5.07" shape="5863.25,2758.71 5868.32,2758.71"/>
    </edge>
    <edge id=":1994431918_0" function="internal">
        <lane id=":1994431918_0_0" index="0" allow="delivery bicycle pedestrian" speed="5.56" length="5.03" shape="5868.31,2763.87 5863.29,2763.95"/>
    </edge>
    <edge id=":1994431927_0" function="internal">
        <lane id=":1994431927_0_0" index="0" allow="delivery bicycle pedestrian" speed="5.56" length="5.68" shape="5866.16,2909.59 5860.48,2909.70"/>
    </edge>
    <edge id=":1994431927_1" function="internal">
        <lane id=":1994431927_1_0" index="0" allow="delivery bicycle pedestrian" speed="5.56" length="2.41" shape="5866.16,2909.59 5864.91,2908.79 5864.49,2907.97"/>
    </edge>
    <edge id=":1994431927_4" function="internal">
        <lane id=":1994431927_4_0" index="0" speed="5.56" length="2.41" shape="5864.49,2907.97 5864.88,2907.14 5866.11,2906.29"/>
    </edge>
    <edge id=":1994431927_2" function="internal">
        <lane id=":1994431927_2_0" index="0" allow="delivery bicycle pedestrian" speed="5.56" length="5.69" shape="5860.41,2906.40 5866.11,2906.29"/>
    </edge>
    <edge id=":1994431927_3" function="internal">
        <lane id=":1994431927_3_0" index="0" allow="delivery bicycle pedestrian" speed="5.56" length="2.41" shape="5860.41,2906.40 5861.67,2907.20 5862.10,2908.01"/>
    </edge>
    <edge id=":1994431927_5" function="internal">
        <lane id=":1994431927_5_0" index="0" speed="5.56" length="2.41" shape="5862.10,2908.01 5861.70,2908.85 5860.48,2909.70"/>
    </edge>
    <edge id=":1994431929_0" function="internal">
        <lane id=":1994431929_0_0" index="0" disallow="tram rail_urban rail rail_electric ship" speed="13.89" length="5.18" shape="5852.45,3051.15 5852.40,3045.97"/>
    </edge>
    <edge id=":1994431929_1" function="internal">
        <lane id=":1994431929_1_0" index="0" disallow="tram rail_urban rail rail_electric ship" speed="13.89" length="2.51" shape="5852.45,3051.15 5853.23,3049.89 5854.04,3049.45 5854.13,3049.49"/>
    </edge>
    <edge id=":1994431929_4" function="internal">
        <lane id=":1994431929_4_0" index="0" speed="13.89" length="2.31" shape="5854.13,3049.49 5854.88,3049.83 5855.75,3051.03"/>
    </edge>
    <edge id=":1994431929_2" function="internal">
        <lane id=":1994431929_2_0" index="0" disallow="tram rail_urban rail rail_electric ship" speed="13.89" length="5.13" shape="5855.70,3045.91 5855.75,3051.03"/>
    </edge>
    <edge id=":1994431929_3" function="internal">
        <lane id=":1994431929_3_0" index="0" disallow="tram rail_urban rail rail_electric ship" speed="13.89" length="2.41" shape="5855.70,3045.91 5854.90,3047.16 5854.08,3047.59"/>
    </edge>
    <edge id=":1994431929_5" function="internal">
        <lane id=":1994431929_5_0" index="0" speed="13.89" length="2.41" shape="5854.08,3047.59 5853.25,3047.19 5852.40,3045.97"/>
    </edge>
    <edge id=":1999383434_0" function="internal">
        <lane id=":1999383434_0_0" index="0" disallow="tram rail_urban rail rail_electric ship" speed="13.89" length="5.03" shape="5885.74,2599.30 5884.72,2604.23"/>
    </edge>
    <edge id=":1999383434_1" function="internal">
        <lane id=":1999383434_1_0" index="0" disallow="tram rail_urban rail rail_electric ship" speed="13.89" length="2.41" shape="5885.74,2599.30 5884.68,2600.35 5883.79,2600.58"/>
    </edge>
    <edge id=":1999383434_4" function="internal">
        <lane id=":1999383434_4_0" index="0" speed="13.89" length="2.41" shape="5883.79,2600.58 5883.06,2600.01 5882.50,2598.63"/>
    </edge>
    <edge id=":1999383434_2" function="internal">
        <lane id=":1999383434_2_0" index="0" disallow="tram rail_urban rail rail_electric ship" speed="13.89" length="5.03" shape="5881.48,2603.56 5882.50,2598.63"/>
    </edge>
    <edge id=":1999383434_3" function="internal">
        <lane id=":1999383434_3_0" index="0" disallow="tram rail_urban rail rail_electric ship" speed="13.89" length="2.41" shape="5881.48,2603.56 5882.54,2602.51 5883.43,2602.28"/>
    </edge>
    <edge id=":1999383434_5" function="internal">
        <lane id=":1999383434_5_0" index="0" speed="13.89" length="2.41" shape="5883.43,2602.28 5884.16,2602.85 5884.72,2604.23"/>
    </edge>
    <edge id=":2019649427_0" function="internal">
        <lane id=":2019649427_0_0" index="0" disallow="tram rail_urban rail rail_electric ship" speed="13.89" length="9.51" shape="5883.24,2434.66 5883.03,2425.15"/>
    </edge>
    <edge id=":2019649427_1" function="internal">
        <lane id=":2019649427_1_0" index="0" allow="delivery bicycle pedestrian" speed="9.73" length="5.30" shape="5883.24,2434.66 5883.59,2431.75 5884.80,2429.71"/>
    </edge>
    <edge id=":2019649427_2" function="internal">
        <lane id=":2019649427_2_0" index="0" disallow="tram rail_urban rail rail_electric ship" speed="13.89" length="2.41" shape="5883.24,2434.66 5884.04,2433.41 5884.86,2432.97"/>
    </edge>
    <edge id=":2019649427_9" function="internal">
        <lane id=":2019649427_9_0" index="0" speed="9.73" length="5.30" shape="5884.80,2429.71 5886.86,2428.52 5889.77,2428.20"/>
    </edge>
    <edge id=":2019649427_10" function="internal">
        <lane id=":2019649427_10_0" index="0" speed="13.89" length="2.41" shape="5884.86,2432.97 5885.69,2433.37 5886.54,2434.59"/>
    </edge>
    <edge id=":2019649427_3" function="internal">
        <lane id=":2019649427_3_0" index="0" disallow="tram rail_urban rail rail_electric ship" speed="9.73" length="5.00" shape="5889.57,2431.50 5888.22,2431.65 5887.26,2432.22 5886.71,2433.20 5886.54,2434.59"/>
    </edge>
    <edge id=":2019649427_4" function="internal">
        <lane id=":2019649427_4_0" index="0" disallow="tram rail_urban rail rail_electric ship" speed="9.73" length="10.27" shape="5889.57,2431.50 5886.76,2431.02 5884.73,2429.81 5883.49,2427.85 5883.03,2425.15"/>
    </edge>
    <edge id=":2019649427_5" function="internal">
        <lane id=":2019649427_5_0" index="0" allow="delivery bicycle pedestrian" speed="5.56" length="4.82" shape="5889.57,2431.50 5888.38,2430.60 5888.02,2429.75 5888.48,2428.95 5889.77,2428.20"/>
    </edge>
    <edge id=":2019649427_6" function="internal">
        <lane id=":2019649427_6_0" index="0" allow="delivery bicycle pedestrian" speed="9.73" length="5.23" shape="5886.32,2425.08 5886.57,2426.40 5887.22,2427.37 5888.29,2427.96 5889.77,2428.20"/>
    </edge>
    <edge id=":2019649427_7" function="internal">
        <lane id=":2019649427_7_0" index="0" disallow="tram rail_urban rail rail_electric ship" speed="13.89" length="9.51" shape="5886.32,2425.08 5886.54,2434.59"/>
    </edge>
    <edge id=":2019649427_8" function="internal">
        <lane id=":2019649427_8_0" index="0" disallow="tram rail_urban rail rail_electric ship" speed="13.89" length="2.41" shape="5886.32,2425.08 5885.53,2426.33 5884.71,2426.77"/>
    </edge>
    <edge id=":2019649427_11" function="internal">
        <lane id=":2019649427_11_0" index="0" speed="13.89" length="2.41" shape="5884.71,2426.77 5883.88,2426.37 5883.03,2425.15"/>
    </edge>
    <edge id=":2019649437_0" function="internal">
        <lane id=":2019649437_0_0" index="0" allow="delivery bicycle pedestrian" speed="5.56" length="5.10" shape="5694.59,2314.18 5694.37,2312.77 5693.77,2311.76 5692.80,2311.15 5691.46,2310.94"/>
    </edge>
    <edge id=":2019649437_1" function="internal">
        <lane id=":2019649437_1_0" index="0" allow="delivery bicycle pedestrian" speed="5.56" length="10.45" shape="5694.59,2314.18 5694.94,2311.33 5696.12,2309.29 5698.13,2308.08 5700.98,2307.69"/>
    </edge>
    <edge id=":2019649437_2" function="internal">
        <lane id=":2019649437_2_0" index="0" allow="delivery bicycle pedestrian" speed="5.56" length="4.82" shape="5694.59,2314.18 5695.39,2312.92 5696.20,2312.49 5697.03,2312.89 5697.88,2314.11"/>
    </edge>
    <edge id=":2019649437_3" function="internal">
        <lane id=":2019649437_3_0" index="0" allow="delivery bicycle pedestrian" speed="5.56" length="5.03" shape="5700.96,2310.99 5699.59,2311.18 5698.62,2311.76 5698.05,2312.74 5697.88,2314.11"/>
    </edge>
    <edge id=":2019649437_4" function="internal">
        <lane id=":2019649437_4_0" index="0" allow="delivery bicycle pedestrian" speed="5.56" length="9.50" shape="5700.96,2310.99 5691.46,2310.94"/>
    </edge>
    <edge id=":2019649437_5" function="internal">
        <lane id=":2019649437_5_0" index="0" allow="delivery bicycle pedestrian" speed="5.56" length="4.82" shape="5700.96,2310.99 5699.73,2310.15 5699.32,2309.33 5699.74,2308.50 5700.98,2307.69"/>
    </edge>
    <edge id=":2019649437_6" function="internal">
        <lane id=":2019649437_6_0" index="0" allow="delivery bicycle pedestrian" speed="5.56" length="9.50" shape="5691.47,2307.64 5700.98,2307.69"/>
    </edge>
    <edge id=":2019649437_7" function="internal">
        <lane id=":2019649437_7_0" index="0" allow="delivery bicycle pedestrian" speed="5.56" length="10.33" shape="5691.47,2307.64 5694.23,2308.06 5696.22,2309.27 5697.44,2311.29 5697.88,2314.11"/>
    </edge>
    <edge id=":2019649437_8" function="internal">
        <lane id=":2019649437_8_0" index="0" allow="delivery bicycle pedestrian" speed="5.56" length="4.82" shape="5691.47,2307.64 5692.71,2308.47 5693.12,2309.30 5692.70,2310.12 5691.46,2310.94"/>
    </edge>
    <edge id=":2019649444_0" function="internal">
        <lane id=":2019649444_0_0" index="0" allow="delivery bicycle pedestrian" speed="5.56" length="5.57" shape="5895.23,2431.76 5889.67,2431.50"/>
    </edge>
    <edge id=":2019649444_1" function="internal">
        <lane id=":2019649444_1_0" index="0" allow="delivery bicycle pedestrian" speed="5.56" length="2.41" shape="5895.23,2431.76 5894.05,2430.86 5893.69,2430.01"/>
    </edge>
    <edge id=":2019649444_4" function="internal">
        <lane id=":2019649444_4_0" index="0" speed="5.56" length="2.41" shape="5893.69,2430.01 5894.15,2429.22 5895.44,2428.47"/>
    </edge>
    <edge id=":2019649444_2" function="internal">
        <lane id=":2019649444_2_0" index="0" allow="delivery bicycle pedestrian" speed="5.56" length="5.57" shape="5889.87,2428.20 5895.44,2428.47"/>
    </edge>
    <edge id=":2019649444_3" function="internal">
        <lane id=":2019649444_3_0" index="0" allow="delivery bicycle pedestrian" speed="5.56" length="2.41" shape="5889.87,2428.20 5891.05,2429.10 5891.42,2429.95"/>
    </edge>
    <edge id=":2019649444_5" function="internal">
        <lane id=":2019649444_5_0" index="0" speed="5.56" length="2.41" shape="5891.42,2429.95 5890.96,2430.75 5889.67,2431.50"/>
    </edge>
    <edge id=":2019649447_0" function="internal">
        <lane id=":2019649447_0_0" index="0" allow="delivery bicycle pedestrian" speed="5.56" length="6.09" shape="5912.14,2436.53 5911.84,2434.89 5911.11,2433.69 5909.95,2432.92 5908.37,2432.59"/>
    </edge>
    <edge id=":2019649447_1" function="internal">
        <lane id=":2019649447_1_0" index="0" allow="delivery bicycle pedestrian" speed="5.56" length="10.31" shape="5912.14,2436.53 5912.00,2433.52 5911.90,2431.38 5911.82,2429.25 5911.72,2426.23"/>
    </edge>
    <edge id=":2019649447_2" function="internal">
        <lane id=":2019649447_2_0" index="0" allow="delivery bicycle pedestrian" speed="5.56" length="11.01" shape="5912.14,2436.53 5912.43,2433.47 5913.66,2431.37 5915.80,2430.23 5918.87,2430.05"/>
    </edge>
    <edge id=":2019649447_3" function="internal">
        <lane id=":2019649447_3_0" index="0" allow="delivery bicycle pedestrian" speed="5.56" length="4.82" shape="5912.14,2436.53 5912.90,2435.26 5913.71,2434.81 5914.55,2435.18 5915.43,2436.38"/>
    </edge>
    <edge id=":2019649447_4" function="internal">
        <lane id=":2019649447_4_0" index="0" allow="delivery bicycle pedestrian" speed="5.56" length="5.16" shape="5918.59,2433.34 5917.15,2433.42 5916.15,2433.96 5915.57,2434.94 5915.43,2436.38"/>
    </edge>
    <edge id=":2019649447_5" function="internal">
        <lane id=":2019649447_5_0" index="0" allow="delivery bicycle pedestrian" speed="5.56" length="10.25" shape="5918.59,2433.34 5915.59,2433.09 5913.48,2432.92 5911.37,2432.78 5908.37,2432.59"/>
    </edge>
    <edge id=":2019649447_6" function="internal">
        <lane id=":2019649447_6_0" index="0" allow="delivery bicycle pedestrian" speed="5.56" length="11.00" shape="5918.59,2433.34 5915.67,2432.68 5913.55,2431.28 5912.23,2429.13 5911.72,2426.23"/>
    </edge>
    <edge id=":2019649447_7" function="internal">
        <lane id=":2019649447_7_0" index="0" allow="delivery bicycle pedestrian" speed="5.56" length="4.82" shape="5918.59,2433.34 5917.43,2432.41 5917.09,2431.56 5917.57,2430.77 5918.87,2430.05"/>
    </edge>
    <edge id=":2019649447_8" function="internal">
        <lane id=":2019649447_8_0" index="0" allow="delivery bicycle pedestrian" speed="5.56" length="6.13" shape="5915.01,2426.12 5915.30,2427.72 5916.04,2428.91 5917.23,2429.69 5918.87,2430.05"/>
    </edge>
    <edge id=":2019649447_9" function="internal">
        <lane id=":2019649447_9_0" index="0" allow="delivery bicycle pedestrian" speed="5.56" length="10.27" shape="5915.01,2426.12 5915.12,2429.13 5915.20,2431.25 5915.29,2433.37 5915.43,2436.38"/>
    </edge>
    <edge id=":2019649447_10" function="internal">
        <lane id=":2019649447_10_0" index="0" allow="delivery bicycle pedestrian" speed="5.56" length="10.83" shape="5915.01,2426.12 5914.69,2429.11 5913.47,2431.18 5911.37,2432.34 5908.37,2432.59"/>
    </edge>
    <edge id=":2019649447_11" function="internal">
        <lane id=":2019649447_11_0" index="0" allow="delivery bicycle pedestrian" speed="5.56" length="4.82" shape="5915.01,2426.12 5914.23,2427.38 5913.42,2427.82 5912.58,2427.44 5911.72,2426.23"/>
    </edge>
    <edge id=":2019649447_12" function="internal">
        <lane id=":2019649447_12_0" index="0" allow="delivery bicycle pedestrian" speed="5.56" length="5.12" shape="5908.57,2429.29 5909.99,2429.18 5910.99,2428.63 5911.56,2427.65 5911.72,2426.23"/>
    </edge>
    <edge id=":2019649447_13" function="internal">
        <lane id=":2019649447_13_0" index="0" allow="delivery bicycle pedestrian" speed="5.56" length="10.33" shape="5908.57,2429.29 5911.59,2429.48 5913.72,2429.63 5915.86,2429.80 5918.87,2430.05"/>
    </edge>
    <edge id=":2019649447_14" function="internal">
        <lane id=":2019649447_14_0" index="0" allow="delivery bicycle pedestrian" speed="5.56" length="11.00" shape="5908.57,2429.29 5911.46,2429.89 5913.56,2431.27 5914.89,2433.43 5915.43,2436.38"/>
    </edge>
    <edge id=":2019649447_15" function="internal">
        <lane id=":2019649447_15_0" index="0" allow="delivery bicycle pedestrian" speed="5.56" length="4.82" shape="5908.57,2429.29 5909.76,2430.19 5910.12,2431.04 5909.65,2431.84 5908.37,2432.59"/>
    </edge>
    <edge id=":2019649448_0" function="internal">
        <lane id=":2019649448_0_0" index="0" allow="delivery bicycle pedestrian" speed="5.56" length="6.53" shape="5891.83,2355.64 5885.31,2355.30"/>
    </edge>
    <edge id=":2019649448_1" function="internal">
        <lane id=":2019649448_1_0" index="0" allow="delivery bicycle pedestrian" speed="5.56" length="2.41" shape="5891.83,2355.64 5890.69,2354.69 5890.37,2353.82"/>
    </edge>
    <edge id=":2019649448_4" function="internal">
        <lane id=":2019649448_4_0" index="0" speed="5.56" length="2.41" shape="5890.37,2353.82 5890.87,2353.05 5892.19,2352.36"/>
    </edge>
    <edge id=":2019649448_2" function="internal">
        <lane id=":2019649448_2_0" index="0" allow="delivery bicycle pedestrian" speed="5.56" length="6.87" shape="5885.33,2352.00 5892.19,2352.36"/>
    </edge>
    <edge id=":2019649448_3" function="internal">
        <lane id=":2019649448_3_0" index="0" allow="delivery bicycle pedestrian" speed="5.56" length="2.55" shape="5885.33,2352.00 5886.56,2352.84 5886.97,2353.66 5886.91,2353.78"/>
    </edge>
    <edge id=":2019649448_5" function="internal">
        <lane id=":2019649448_5_0" index="0" speed="5.56" length="2.27" shape="5886.91,2353.78 5886.55,2354.49 5885.31,2355.30"/>
    </edge>
    <edge id=":2019649460_0" function="internal">
        <lane id=":2019649460_0_0" index="0" allow="delivery bicycle pedestrian" speed="5.56" length="5.58" shape="5933.26,2437.45 5932.95,2436.17 5932.19,2435.21 5930.99,2434.57 5929.34,2434.25"/>
    </edge>
    <edge id=":2019649460_1" function="internal">
        <lane id=":2019649460_1_0" index="0" allow="delivery bicycle pedestrian" speed="5.56" length="9.53" shape="5933.26,2437.45 5932.78,2427.93"/>
    </edge>
    <edge id=":2019649460_2" function="internal">
        <lane id=":2019649460_2_0" index="0" allow="delivery bicycle pedestrian" speed="5.56" length="4.82" shape="5933.26,2437.45 5934.01,2436.16 5934.81,2435.70 5935.65,2436.07 5936.55,2437.25"/>
    </edge>
    <edge id=":2019649460_3" function="internal">
        <lane id=":2019649460_3_0" index="0" allow="delivery bicycle pedestrian" speed="5.56" length="9.48" shape="5936.08,2427.79 5936.55,2437.25"/>
    </edge>
    <edge id=":2019649460_4" function="internal">
        <lane id=":2019649460_4_0" index="0" allow="delivery bicycle pedestrian" speed="5.56" length="10.98" shape="5936.08,2427.79 5935.77,2430.84 5934.54,2432.93 5932.40,2434.07 5929.34,2434.25"/>
    </edge>
    <edge id=":2019649460_5" function="internal">
        <lane id=":2019649460_5_0" index="0" allow="delivery bicycle pedestrian" speed="5.56" length="4.82" shape="5936.08,2427.79 5935.31,2429.06 5934.50,2429.50 5933.66,2429.13 5932.78,2427.93"/>
    </edge>
    <edge id=":2019649460_6" function="internal">
        <lane id=":2019649460_6_0" index="0" allow="delivery bicycle pedestrian" speed="5.56" length="5.16" shape="5929.62,2430.96 5931.06,2430.87 5932.06,2430.34 5932.64,2429.36 5932.78,2427.93"/>
    </edge>
    <edge id=":2019649460_7" function="internal">
        <lane id=":2019649460_7_0" index="0" allow="delivery bicycle pedestrian" speed="5.56" length="10.36" shape="5929.62,2430.96 5932.53,2431.56 5934.65,2432.81 5935.99,2434.71 5936.55,2437.25"/>
    </edge>
    <edge id=":2019649460_8" function="internal">
        <lane id=":2019649460_8_0" index="0" allow="delivery bicycle pedestrian" speed="5.56" length="4.82" shape="5929.62,2430.96 5930.78,2431.89 5931.12,2432.74 5930.64,2433.53 5929.34,2434.25"/>
    </edge>
    <edge id=":2019649469_0" function="internal">
        <lane id=":2019649469_0_0" index="0" allow="delivery bicycle pedestrian" speed="5.56" length="9.43" shape="5695.30,2353.90 5695.19,2344.48"/>
    </edge>
    <edge id=":2019649469_1" function="internal">
        <lane id=":2019649469_1_0" index="0" allow="delivery bicycle pedestrian" speed="5.56" length="10.37" shape="5695.30,2353.90 5695.69,2351.09 5696.89,2349.08 5698.90,2347.88 5701.72,2347.49"/>
    </edge>
    <edge id=":2019649469_2" function="internal">
        <lane id=":2019649469_2_0" index="0" allow="delivery bicycle pedestrian" speed="5.56" length="4.82" shape="5695.30,2353.90 5696.12,2352.66 5696.95,2352.25 5697.77,2352.65 5698.60,2353.89"/>
    </edge>
    <edge id=":2019649469_3" function="internal">
        <lane id=":2019649469_3_0" index="0" allow="delivery bicycle pedestrian" speed="5.56" length="5.01" shape="5701.70,2350.79 5700.34,2350.97 5699.37,2351.55 5698.79,2352.53 5698.60,2353.89"/>
    </edge>
    <edge id=":2019649469_4" function="internal">
        <lane id=":2019649469_4_0" index="0" allow="delivery bicycle pedestrian" speed="5.56" length="10.29" shape="5701.70,2350.79 5698.90,2350.38 5696.88,2349.20 5695.64,2347.23 5695.19,2344.48"/>
    </edge>
    <edge id=":2019649469_5" function="internal">
        <lane id=":2019649469_5_0" index="0" allow="delivery bicycle pedestrian" speed="5.56" length="4.82" shape="5701.70,2350.79 5700.47,2349.96 5700.06,2349.13 5700.48,2348.31 5701.72,2347.49"/>
    </edge>
    <edge id=":2019649469_6" function="internal">
        <lane id=":2019649469_6_0" index="0" allow="delivery bicycle pedestrian" speed="5.56" length="5.06" shape="5698.49,2344.41 5698.71,2345.75 5699.32,2346.71 5700.33,2347.29 5701.72,2347.49"/>
    </edge>
    <edge id=":2019649469_7" function="internal">
        <lane id=":2019649469_7_0" index="0" allow="delivery bicycle pedestrian" speed="5.56" length="9.48" shape="5698.49,2344.41 5698.60,2353.89"/>
    </edge>
    <edge id=":2019649469_8" function="internal">
        <lane id=":2019649469_8_0" index="0" allow="delivery bicycle pedestrian" speed="5.56" length="4.82" shape="5698.49,2344.41 5697.69,2345.66 5696.87,2346.09 5696.04,2345.70 5695.19,2344.48"/>
    </edge>
    <edge id=":2019649478_0" function="internal">
        <lane id=":2019649478_0_0" index="0" allow="delivery bicycle pedestrian" speed="5.56" length="6.19" shape="5757.71,2413.94 5751.71,2412.40"/>
    </edge>
    <edge id=":2019649478_1" function="internal">
        <lane id=":2019649478_1_0" index="0" allow="delivery bicycle pedestrian" speed="5.56" length="8.73" shape="5757.71,2413.94 5756.46,2412.54 5755.56,2410.74 5755.01,2408.56 5754.81,2405.99"/>
    </edge>
    <edge id=":2019649478_2" function="internal">
        <lane id=":2019649478_2_0" index="0" allow="delivery bicycle pedestrian" speed="5.56" length="4.82" shape="5757.71,2413.94 5757.30,2412.52 5757.52,2411.62 5758.37,2411.26 5759.84,2411.43"/>
    </edge>
    <edge id=":2019649478_3" function="internal">
        <lane id=":2019649478_3_0" index="0" allow="delivery bicycle pedestrian" speed="5.56" length="5.90" shape="5758.11,2405.96 5758.23,2407.81 5758.56,2409.34 5759.10,2410.54 5759.84,2411.43"/>
    </edge>
    <edge id=":2019649478_4" function="internal">
        <lane id=":2019649478_4_0" index="0" allow="delivery bicycle pedestrian" speed="5.56" length="10.37" shape="5758.11,2405.96 5757.73,2408.78 5756.54,2410.79 5754.53,2412.00 5751.71,2412.40"/>
    </edge>
    <edge id=":2019649478_5" function="internal">
        <lane id=":2019649478_5_0" index="0" allow="delivery bicycle pedestrian" speed="5.56" length="4.82" shape="5758.11,2405.96 5757.29,2407.20 5756.47,2407.62 5755.64,2407.22 5754.81,2405.99"/>
    </edge>
    <edge id=":2019649478_6" function="internal">
        <lane id=":2019649478_6_0" index="0" allow="delivery bicycle pedestrian" speed="5.56" length="5.01" shape="5751.72,2409.10 5753.08,2408.90 5754.05,2408.32 5754.62,2407.35 5754.81,2405.99"/>
    </edge>
    <edge id=":2019649478_7" function="internal">