<?xml version="1.0"?>
<!-- generated on 2017-03-03 17:50:06.647000 by $Id: randomTrips.py 19495 2015-12-02 12:36:28Z behrisch $
  options: -n net.net.xml -l -e 20 -o uah.trips.xml
-->
<trips>
    <trip id="0" depart="0.00" from="-7808717#1" to="-7816358" />
    <trip id="1" depart="1.00" from="7813544" to="46690021#1" />
    <trip id="2" depart="2.00" from="-406371910#1" to="70930949#1" />
    <trip id="3" depart="3.00" from="-70930945#0" to="7824722#9" />
    <trip id="4" depart="4.00" from="7800871" to="-7822669#2" />
    <trip id="5" depart="5.00" from="7820217" to="7808725#1" />
    <trip id="6" depart="6.00" from="-7813544" to="7821147" />
    <trip id="7" depart="7.00" from="54974128#0" to="7824722#10" />
    <trip id="8" depart="8.00" from="7820055#6" to="-7822960#0" />
    <trip id="9" depart="9.00" from="7825009#1" to="-7822564#0" />
    <trip id="10" depart="10.00" from="-7817859#1" to="406366694#0" />
    <trip id="11" depart="11.00" from="384343734#2" to="46690021#1" />
    <trip id="12" depart="12.00" from="384343734#1" to="-7820523" />
    <trip id="13" depart="13.00" from="184049917#1" to="46690021#1" />
    <trip id="14" depart="14.00" from="7808717#2" to="-7825721" />
    <trip id="15" depart="15.00" from="-7824722#9" to="7824722#2" />
    <trip id="16" depart="16.00" from="191381238#1" to="7818578#0" />
    <trip id="17" depart="17.00" from="7810766#0" to="-7822072#0" />
    <trip id="18" depart="18.00" from="54974128#0" to="-7820523" />
    <trip id="19" depart="19.00" from="7807093#1" to="7800871" />
</trips>
