<?xml version="1.0"?>
<!-- generated on 2017-04-12 21:53:12.221000 by $Id: randomTrips.py 19495 2015-12-02 12:36:28Z behrisch $
  options: -n net.net.xml -l -e 100 -o uah100.trips.xml
-->
<trips>
    <trip id="0" depart="0.00" from="-54974130#11" to="-7802673" />
    <trip id="1" depart="1.00" from="-384343742#1" to="-7800871" />
    <trip id="2" depart="2.00" from="7808850" to="-7822669#0" />
    <trip id="3" depart="3.00" from="-54149349#4" to="-7806030#3" />
    <trip id="4" depart="4.00" from="7824401#6" to="-7800871" />
    <trip id="5" depart="5.00" from="-7808717#2" to="7822669#2" />
    <trip id="6" depart="6.00" from="7808717#5" to="7802665" />
    <trip id="7" depart="7.00" from="-7824722#10" to="-7815987#0" />
    <trip id="8" depart="8.00" from="7822072#0" to="7822960#0" />
    <trip id="9" depart="9.00" from="332323749#0" to="384343741#2" />
    <trip id="10" depart="10.00" from="7825009#8" to="7819810#1" />
    <trip id="11" depart="11.00" from="7824722#10" to="-7808717#1" />
    <trip id="12" depart="12.00" from="7802673" to="7804204" />
    <trip id="13" depart="13.00" from="7802656#1" to="7824718#1" />
    <trip id="14" depart="14.00" from="-7802665" to="-7815987#0" />
    <trip id="15" depart="15.00" from="7820900#0" to="-7808717#3" />
    <trip id="16" depart="16.00" from="7824402" to="-7822072#1" />
    <trip id="17" depart="17.00" from="-7824722#10" to="46690021#1" />
    <trip id="18" depart="18.00" from="-7802673" to="-7815987#0" />
    <trip id="19" depart="19.00" from="384343734#2" to="55284416#4" />
    <trip id="20" depart="20.00" from="-7824723#7" to="-7808850" />
    <trip id="21" depart="21.00" from="373232849" to="-7825721" />
    <trip id="22" depart="22.00" from="-7821694#2" to="7824401#5" />
    <trip id="23" depart="23.00" from="-7815634" to="7825009#1" />
    <trip id="24" depart="24.00" from="7825009#4" to="-436606552" />
    <trip id="25" depart="25.00" from="-7820900#0" to="-59580411#0" />
    <trip id="26" depart="26.00" from="-7815987#0" to="7824723#7" />
    <trip id="27" depart="27.00" from="7802665" to="-7822960#1" />
    <trip id="28" depart="28.00" from="-7824723#7" to="-7813544" />
    <trip id="29" depart="29.00" from="7824722#10" to="-55283779#1" />
    <trip id="30" depart="30.00" from="7822008#0" to="7824401#3" />
    <trip id="31" depart="31.00" from="7808717#1" to="7824722#10" />
    <trip id="32" depart="32.00" from="7820055#2" to="-54149349#0" />
    <trip id="33" depart="33.00" from="7823379#2" to="-406371910#0" />
    <trip id="34" depart="34.00" from="384343740#4" to="7824722#9" />
    <trip id="35" depart="35.00" from="-7820900#1" to="7804204" />
    <trip id="36" depart="36.00" from="7820055#2" to="7824722#9" />
    <trip id="37" depart="37.00" from="7806030#3" to="191381238#1" />
    <trip id="38" depart="38.00" from="406371910#0" to="-7825435#0" />
    <trip id="39" depart="39.00" from="7807093#0" to="-7824722#10" />
    <trip id="40" depart="40.00" from="46690021#0" to="-7824401#0" />
    <trip id="41" depart="41.00" from="-7804204" to="406366713#2" />
    <trip id="42" depart="42.00" from="7823125" to="384343740#2" />
    <trip id="43" depart="43.00" from="436606579#1" to="46690021#1" />
    <trip id="44" depart="44.00" from="-7824722#2" to="7815987#1" />
    <trip id="45" depart="45.00" from="59580411#1" to="7808717#1" />
    <trip id="46" depart="46.00" from="7810669#0" to="-7816928" />
    <trip id="47" depart="47.00" from="-7821525" to="406366670#1" />
    <trip id="48" depart="48.00" from="-7813544" to="-194224943#1" />
    <trip id="49" depart="49.00" from="7824722#9" to="7819117" />
    <trip id="50" depart="50.00" from="-7822669#2" to="55283363#0" />
    <trip id="51" depart="51.00" from="-7824723#7" to="384343741#1" />
    <trip id="52" depart="52.00" from="-7810669#1" to="-406366695" />
    <trip id="53" depart="53.00" from="54974128#0" to="384343741#2" />
    <trip id="54" depart="54.00" from="54974130#11" to="-7824723#2" />
    <trip id="55" depart="55.00" from="-7802665" to="384343741#1" />
    <trip id="56" depart="56.00" from="-7820900#1" to="54974131" />
    <trip id="57" depart="57.00" from="7817859#0" to="7806030#0" />
    <trip id="58" depart="58.00" from="7819810#0" to="7824722#10" />
    <trip id="59" depart="59.00" from="7800871" to="7823393" />
    <trip id="60" depart="60.00" from="7824722#9" to="7800871" />
    <trip id="61" depart="61.00" from="-406366670#0" to="7821525" />
    <trip id="62" depart="62.00" from="7820900#0" to="-7802673" />
    <trip id="63" depart="63.00" from="7825009#0" to="7819810#0" />
    <trip id="64" depart="64.00" from="-70930945#0" to="406366694#2" />
    <trip id="65" depart="65.00" from="7819810#0" to="7816358" />
    <trip id="66" depart="66.00" from="7822465#1" to="-55284416#0" />
    <trip id="67" depart="67.00" from="7814377" to="-7800542#0" />
    <trip id="68" depart="68.00" from="-7808717#2" to="384343741#1" />
    <trip id="69" depart="69.00" from="7816358" to="-7824722#3" />
    <trip id="70" depart="70.00" from="46690021#0" to="-7815987#1" />
    <trip id="71" depart="71.00" from="7825435#0" to="-70930950#2" />
    <trip id="72" depart="72.00" from="-7807093#0" to="384343741#1" />
    <trip id="73" depart="73.00" from="-7815987#0" to="7822669#1" />
    <trip id="74" depart="74.00" from="7808717#1" to="54974128#0" />
    <trip id="75" depart="75.00" from="-7821525" to="-406366670#1" />
    <trip id="76" depart="76.00" from="7822960#1" to="7824722#9" />
    <trip id="77" depart="77.00" from="7820055#3" to="7810763" />
    <trip id="78" depart="78.00" from="54974130#15" to="7802673" />
    <trip id="79" depart="79.00" from="7825009#4" to="-7818578#0" />
    <trip id="80" depart="80.00" from="-7824723#7" to="-7824401#4" />
    <trip id="81" depart="81.00" from="436606557" to="-194224943#1" />
    <trip id="82" depart="82.00" from="-7824723#7" to="7819810#0" />
    <trip id="83" depart="83.00" from="70930945#1" to="7817859#1" />
    <trip id="84" depart="84.00" from="373232849" to="-7810389" />
    <trip id="85" depart="85.00" from="7819810#0" to="-54974130#4" />
    <trip id="86" depart="86.00" from="7822072#1" to="7820055#1" />
    <trip id="87" depart="87.00" from="-7822669#2" to="384343741#2" />
    <trip id="88" depart="88.00" from="436606579#1" to="46690021#1" />
    <trip id="89" depart="89.00" from="-7823379#3" to="7820055#0" />
    <trip id="90" depart="90.00" from="406371910#1" to="7819117" />
    <trip id="91" depart="91.00" from="7825009#1" to="-7813544" />
    <trip id="92" depart="92.00" from="-7824722#10" to="55283363#0" />
    <trip id="93" depart="93.00" from="7825009#1" to="-7808717#1" />
    <trip id="94" depart="94.00" from="384343734#2" to="7825009#1" />
    <trip id="95" depart="95.00" from="-7802673" to="7824402" />
    <trip id="96" depart="96.00" from="-7802665" to="7824722#3" />
    <trip id="97" depart="97.00" from="-7824722#3" to="46690021#1" />
    <trip id="98" depart="98.00" from="7802665" to="-7816358" />
    <trip id="99" depart="99.00" from="-7808717#6" to="7822669#0" />
</trips>
