<?xml version="1.0"?>
<!-- generated on 2017-04-12 21:55:58.877000 by $Id: randomTrips.py 19495 2015-12-02 12:36:28Z behrisch $
  options: -n net.net.xml -l -e 5 -o uah5.trips.xml
-->
<trips>
    <trip id="0" depart="0.00" from="184049917#0" to="46690021#1" />
    <trip id="1" depart="1.00" from="-7822960#1" to="7804204" />
    <trip id="2" depart="2.00" from="7814377" to="-7822669#1" />
    <trip id="3" depart="3.00" from="7822547#1" to="7822960#1" />
    <trip id="4" depart="4.00" from="-7824722#9" to="-7798828#3" />
</trips>
