<?xml version="1.0" encoding="UTF-8"?>

<!-- generated on 04/12/17 22:02:33 by SUMO duarouter Version 0.25.0
<?xml version="1.0" encoding="UTF-8"?>

<configuration xmlns:xsi="http://www.w3.org/2001/XMLSchema-instance" xsi:noNamespaceSchemaLocation="http://sumo.dlr.de/xsd/duarouterConfiguration.xsd">

    <input>
        <net-file value="net.net.xml"/>
        <trip-files value="uah100.trips.xml"/>
    </input>

    <output>
        <output-file value="uahroutes100.rou.xml"/>
    </output>

    <processing>
        <ignore-errors value="true"/>
    </processing>

</configuration>
-->

<routes xmlns:xsi="http://www.w3.org/2001/XMLSchema-instance" xsi:noNamespaceSchemaLocation="http://sumo.dlr.de/xsd/routes_file.xsd">
    <vehicle id="0" depart="0.00">
        <route edges="-54974130#11 54974130#11 54974130#12 54974130#13 54974130#14 54974130#15 54974130#16 54974130#17 54974130#18 7824718#1 7824718#2 7824402 -70930942 -70930943 -384343742#1 -384343742#0 -7824401#8 -7824401#7 -7824401#6 -7824401#5 -7824401#4 -7824401#3 -7824401#2 -7802673"/>
    </vehicle>
    <vehicle id="1" depart="1.00">
        <route edges="-384343742#1 -384343742#0 -7824401#8 7825009#6 7825009#7 7825009#8 7825009#9 7825009#10 -46689710#1 7823124 384343740#0 -7800871"/>
    </vehicle>
    <vehicle id="2" depart="2.00">
        <route edges="7808850 -7808850 54974130#5 54974130#6 54974130#7 54974130#8 54974130#9 54974130#10 54974130#11 54974130#12 54974130#13 54974130#14 54974130#15 54974130#16 54974130#17 406366694#2 7824722#0 7822465#0 7822465#1 -7822669#2 -7822669#1 -7822669#0"/>
    </vehicle>
    <vehicle id="3" depart="3.00">
        <route edges="-54149349#4 54149349#4 7820900#0 -7806030#3"/>
    </vehicle>
    <vehicle id="4" depart="4.00">
        <route edges="7824401#6 7802654 7825009#7 7825009#8 7825009#9 7825009#10 -46689710#1 7823124 384343740#0 -7800871"/>
    </vehicle>
    <vehicle id="5" depart="5.00">
        <route edges="-7808717#2 7808717#2 7808717#3 7808717#4 7808717#5 7808717#6 7808717#7 -79874580#1 54974128#1 54974128#2 384343742#0 384343742#1 70930943 70930942 184049917#0 184049917#1 54149355 406366694#0 406366694#1 406366694#2 7824722#0 7822465#0 7822465#1 -7822669#2 7822669#2"/>
    </vehicle>
    <vehicle id="6" depart="6.00">
        <route edges="7808717#5 7808717#6 7808717#7 -79874580#1 54974128#1 54974128#2 -7824401#8 -7824401#7 -7824401#6 -7824401#5 -7824401#4 -7824401#3 7802665"/>
    </vehicle>
    <vehicle id="7" depart="7.00">
        <route edges="-7824722#10 -7824722#9 -7824722#8 -7824722#7 -7824722#6 -7824722#5 -7824722#4 -7824722#3 -7824722#2 -7824722#1 -7824722#0 7824718#0 7824718#1 7824718#2 7824402 -70930942 -70930943 -384343742#1 -384343742#0 -7824401#8 7825009#6 7825009#7 7825009#8 7825009#9 7825009#10 -46689710#1 7823124 384343740#0 384343740#1 -7815987#1 -7815987#0"/>
    </vehicle>
    <vehicle id="8" depart="8.00">
        <route edges="7822072#0 7822072#1 -7824722#3 -7825435#2 -7825435#1 -7825435#0 -7822960#0 7822960#0"/>
    </vehicle>
    <vehicle id="9" depart="9.00">
        <route edges="332323749#0 332323749#1 332323749#2 384343734#0 384343734#1 384343734#2 -7823124 46689710#1 54974128#0 54974128#1 54974128#2 384343741#0 384343741#1 384343741#2"/>
    </vehicle>
    <vehicle id="10" depart="10.00">
        <route edges="7825009#8 7825009#9 7825009#10 54974128#0 54974128#1 54974128#2 384343742#0 384343742#1 70930943 70930942 184049917#0 184049917#1 54149355 406366694#0 406366694#1 406366694#2 7824722#0 7824722#1 7824722#2 7824722#3 7824722#4 7824722#5 -7819810#2 -7819810#1 7819810#1"/>
    </vehicle>
    <vehicle id="11" depart="11.00">
        <route edges="7824722#10 -7824722#10 -7824722#9 -7824722#8 -7824722#7 -7824722#6 -7824722#5 -7824722#4 -7824722#3 -7824722#2 -7824722#1 -7824722#0 7824718#0 7824718#1 7824718#2 7824402 -70930942 -70930943 -384343742#1 -384343742#0 -7824401#8 7825009#6 7825009#7 -7808717#7 -7808717#6 -7808717#5 -7808717#4 -7808717#3 -7808717#2 -7808717#1"/>
    </vehicle>
    <vehicle id="12" depart="12.00">
        <route edges="7802673 7824401#2 7824401#3 7824401#4 7824401#5 7824401#6 7802654 7825009#7 7825009#8 7825009#9 7825009#10 -46689710#1 7823124 384343740#0 384343740#1 384343740#2 384343740#3 384343740#4 -384343736 7804204"/>
    </vehicle>
    <vehicle id="13" depart="13.00">
        <route edges="7802656#1 7824401#6 7824401#7 7824401#8 384343742#0 384343742#1 70930943 70930942 184049917#0 184049917#1 54149355 406366694#0 406366694#1 54974130#18 7824718#1"/>
    </vehicle>
    <vehicle id="14" depart="14.00">
        <route edges="-7802665 7824401#3 7824401#4 7824401#5 7824401#6 7802654 7825009#7 7825009#8 7825009#9 7825009#10 -46689710#1 7823124 384343740#0 384343740#1 -7815987#1 -7815987#0"/>
    </vehicle>
    <vehicle id="15" depart="15.00">
        <route edges="7820900#0 -7820900#0 -54149349#4 -54149349#3 -54149349#2 -54149349#1 -54149349#0 7824402 -70930942 -70930943 -384343742#1 -384343742#0 -7824401#8 7825009#6 7825009#7 -7808717#7 -7808717#6 -7808717#5 -7808717#4 -7808717#3"/>
    </vehicle>
    <vehicle id="16" depart="16.00">
        <route edges="7824402 184049917#0 184049917#1 54149355 406366694#0 406366694#1 406366694#2 7824722#0 7824722#1 7824722#2 7824722#3 -7822072#1"/>
    </vehicle>
    <vehicle id="18" depart="18.00">
        <route edges="-7802673 7824401#1 7824401#2 7824401#3 7824401#4 7824401#5 7824401#6 7802654 7825009#7 7825009#8 7825009#9 7825009#10 -46689710#1 7823124 384343740#0 384343740#1 -7815987#1 -7815987#0"/>
    </vehicle>
    <vehicle id="19" depart="19.00">
        <route edges="384343734#2 -7823124 46689710#1 54974128#0 54974128#1 54974128#2 384343742#0 384343742#1 70930943 70930942 184049917#0 184049917#1 54149355 406366694#0 406366694#1 406366694#2 7824722#0 7824722#1 7824722#2 -7825435#2 -7825435#1 -7825435#0 -7822960#0 55284416#4"/>
    </vehicle>
    <vehicle id="20" depart="20.00">
        <route edges="-7824723#7 -7824723#6 -7824723#5 -7824723#4 -7824723#3 -7824723#2 -7824723#1 -7824723#0 7825009#3 7825009#4 7825009#5 7825009#6 7825009#7 -79874580#1 -79874580#0 59580412#1 59580411#0 -7821694#4 -7821694#3 -7821694#2 7818573 191381238#0 191381232 -7807093#2 -7808850"/>
    </vehicle>
    <vehicle id="21" depart="21.00">
        <route edges="373232849 332323749#1 332323749#2 384343734#0 384343734#1 384343734#2 -7823124 46689710#1 54974128#0 54974128#1 54974128#2 384343742#0 384343742#1 70930943 70930942 184049917#0 184049917#1 54149355 406366694#0 406366694#1 406366694#2 7824722#0 7824722#1 -7825721"/>
    </vehicle>
    <vehicle id="22" depart="22.00">
        <route edges="-7821694#2 7821694#2 7821694#3 7821694#4 -59580411#0 59580412#2 59580412#3 59580412#0 79874580#0 54974128#1 54974128#2 -7824401#8 -7824401#7 -7824401#6 -7824401#5 7824401#5"/>
    </vehicle>
    <vehicle id="23" depart="23.00">
        <route edges="-7815634 7808717#4 7808717#5 7808717#6 7808717#7 -79874580#1 54974128#1 54974128#2 384343741#0 384343741#1 384343741#2 7825009#0 7825009#1"/>
    </vehicle>
    <vehicle id="24" depart="24.00">
        <route edges="7825009#4 7825009#5 7824401#8 384343742#0 384343742#1 70930943 70930942 184049917#0 184049917#1 54149355 406366694#0 406366694#1 406366694#2 7824722#0 7824722#1 7824722#2 -7825435#2 -7825435#1 -7825435#0 -7822960#0 -55284416#3 -7820055#6 -7820055#5 7826965 -7823379#2 -7823379#1 -436606552"/>
    </vehicle>
    <vehicle id="25" depart="25.00">
        <route edges="-7820900#0 7822547#0 7822547#1 59580412#3 59580412#0 59580412#1 59580411#0 -59580411#0"/>
    </vehicle>
    <vehicle id="26" depart="26.00">
        <route edges="-7815987#0 7808717#5 7808717#6 7808717#7 -79874580#1 54974128#1 54974128#2 -7824401#8 -7824401#7 -7824401#6 -7824401#5 -7824401#4 7798828#0 7798828#1 7798828#2 7798828#3 7798828#4 7824723#5 7824723#6 7824723#7"/>
    </vehicle>
    <vehicle id="27" depart="27.00">
        <route edges="7802665 7824401#5 7824401#6 7824401#7 7824401#8 384343742#0 384343742#1 70930943 70930942 184049917#0 184049917#1 54149355 406366694#0 406366694#1 406366694#2 7824722#0 7824722#1 7824722#2 -7825435#2 -7825435#1 -7822960#1"/>
    </vehicle>
    <vehicle id="28" depart="28.00">
        <route edges="-7824723#7 -7824723#6 -7824723#5 -7824723#4 -7824723#3 -7824723#2 -7824723#1 -7824723#0 7825009#3 7825009#4 7810518 -7824401#6 -7802656#1 -7813544"/>
    </vehicle>
    <vehicle id="29" depart="29.00">
        <route edges="7824722#10 -7824722#10 -7824722#9 -7824722#8 -7824722#7 -7824722#6 -7824722#5 -7824722#4 -7824722#3 -7824722#2 -7824722#1 -7824722#0 7824718#0 -55283779#3 -55283779#2 -55283779#1"/>
    </vehicle>
    <vehicle id="30" depart="30.00">
        <route edges="7822008#0 7822008#1 7819810#0 7819810#1 7819810#2 -7824722#5 -7824722#4 -7824722#3 -7824722#2 -7824722#1 -7824722#0 7824718#0 7824718#1 7824718#2 7824402 -70930942 -70930943 -384343742#1 -384343742#0 -7824401#8 -7824401#7 -7824401#6 -7824401#5 -7824401#4 -7824401#3 7824401#3"/>
    </vehicle>
    <vehicle id="31" depart="31.00">
        <route edges="7808717#1 7808717#2 7808717#3 7808717#4 7808717#5 7808717#6 7808717#7 -79874580#1 54974128#1 54974128#2 384343742#0 384343742#1 70930943 70930942 184049917#0 184049917#1 54149355 406366694#0 406366694#1 406366694#2 7824722#0 7824722#1 7824722#2 7824722#3 7824722#4 7824722#5 7824722#6 7824722#7 7824722#8 7824722#9 7824722#10"/>
    </vehicle>
    <vehicle id="32" depart="32.00">
        <route edges="7820055#2 7820055#3 7820055#4 7820055#5 7820055#6 55284416#3 7822960#0 7822960#1 7825435#1 7825435#2 -7824722#2 -7824722#1 -7824722#0 7824718#0 7824718#1 7824718#2 54149349#0 -54149349#0"/>
    </vehicle>
    <vehicle id="33" depart="33.00">
        <route edges="7823379#2 -7826965 7820055#5 7820055#6 55284416#3 7822960#0 7822960#1 7825435#1 7825435#2 -7824722#2 -7824722#1 -7824722#0 7824718#0 7824718#1 7824718#2 7824402 184049917#0 184049917#1 54149355 406366694#0 406371909#0 406371909#1 -406371910#1 -406371910#0"/>
    </vehicle>
    <vehicle id="34" depart="34.00">
        <route edges="384343740#4 -384343736 332323749#2 384343734#0 384343734#1 384343734#2 -7823124 46689710#1 54974128#0 54974128#1 54974128#2 384343742#0 384343742#1 70930943 70930942 184049917#0 184049917#1 54149355 406366694#0 406366694#1 406366694#2 7824722#0 7824722#1 7824722#2 7824722#3 7824722#4 7824722#5 7824722#6 7824722#7 7824722#8 7824722#9"/>
    </vehicle>
    <vehicle id="35" depart="35.00">
        <route edges="-7820900#1 -7820900#0 -54149349#4 -54149349#3 -54149349#2 -54149349#1 -54149349#0 7824402 -70930942 -70930943 -384343742#1 -384343742#0 -7824401#8 7825009#6 7825009#7 7825009#8 7825009#9 7825009#10 -46689710#1 7823124 384343740#0 384343740#1 384343740#2 384343740#3 384343740#4 -384343736 7804204"/>
    </vehicle>
    <vehicle id="36" depart="36.00">
        <route edges="7820055#2 7820055#3 7820055#4 7820055#5 7820055#6 -55284416#2 7821147 -55284057 7804234 7820524#0 7820524#1 7824722#4 7824722#5 7824722#6 7824722#7 7824722#8 7824722#9"/>
    </vehicle>
    <vehicle id="37" depart="37.00">
        <route edges="7806030#3 -7820900#0 7822547#0 7822547#1 59580412#3 59580412#0 59580412#1 59580411#0 -7821694#4 -7821694#3 -7821694#2 7818573 191381238#0 191381238#1"/>
    </vehicle>
    <vehicle id="38" depart="38.00">
        <route edges="406371910#0 406371910#1 -406371909#1 -406371909#0 406366694#1 406366694#2 7824722#0 7824722#1 7824722#2 -7825435#2 -7825435#1 -7825435#0"/>
    </vehicle>
    <vehicle id="39" depart="39.00">
        <route edges="7807093#0 -191381238#2 -191381238#1 -191381238#0 -7818573 -7821694#1 -7821694#0 54974130#8 54974130#9 54974130#10 54974130#11 54974130#12 54974130#13 54974130#14 54974130#15 54974130#16 54974130#17 406366694#2 7824722#0 7824722#1 7824722#2 7824722#3 7824722#4 7824722#5 7824722#6 7824722#7 7824722#8 7824722#9 7824722#10 -7824722#10"/>
    </vehicle>
    <vehicle id="41" depart="41.00">
        <route edges="-7804204 332323749#2 384343734#0 384343734#1 384343734#2 -7823124 46689710#1 54974128#0 54974128#1 54974128#2 384343742#0 384343742#1 70930943 70930942 184049917#0 184049917#1 54149355 406366694#0 406366694#1 54974130#18 -55283779#3 -55283779#2 -406366714 406366713#1 406366713#2"/>
    </vehicle>
    <vehicle id="42" depart="42.00">
        <route edges="7823125 384343734#0 384343734#1 -384343739 384343740#2"/>
    </vehicle>
    <vehicle id="44" depart="44.00">
        <route edges="-7824722#2 -7824722#1 -7824722#0 7824718#0 7824718#1 7824718#2 7824402 -70930942 -70930943 -384343742#1 -384343742#0 -7824401#8 7825009#6 7825009#7 7825009#8 7825009#9 7825009#10 -46689710#1 7823124 384343740#0 384343740#1 -7815987#1 7815987#1"/>
    </vehicle>
    <vehicle id="45" depart="45.00">
        <route edges="59580411#1 59580411#2 59580411#3 7799783 -54974131 7823124 384343740#0 384343740#1 384343740#2 7808717#1"/>
    </vehicle>
    <vehicle id="47" depart="47.00">
        <route edges="-7821525 7822669#1 7822669#2 -7822465#1 -7822465#0 -7824722#0 7824718#0 -54974130#18 -54974130#17 -54974130#16 -54974130#15 -54974130#14 -54974130#13 -54974130#12 -54974130#11 -54974130#10 -54974130#9 -54974130#8 -54974130#7 191381234#0 191381234#1 191381240#0 -406366670#2 -406366670#1 406366670#1"/>
    </vehicle>
    <vehicle id="48" depart="48.00">
        <route edges="-7813544 7798828#4 -7824723#4 -7824723#3 -7824723#2 -7824723#1 -7824723#0 7825009#3 7825009#4 7825009#5 7824401#8 384343742#0 384343742#1 70930943 70930942 184049917#0 184049917#1 54149355 406366694#0 406366694#1 -54974130#17 -54974130#16 7810521#0 7810521#1 7810521#2 -194224943#1"/>
    </vehicle>
    <vehicle id="49" depart="49.00">
        <route edges="7824722#9 -7824722#9 -7824722#8 -7824722#7 -7824722#6 -7824722#5 -7824722#4 -7824722#3 -7824722#2 -7824722#1 -7824722#0 7824718#0 7824718#1 7824718#2 7824402 -70930942 -70930943 -384343742#1 -384343742#0 -7824401#8 -7824401#7 -7824401#6 -7824401#5 -7824401#4 7798828#0 7798828#1 7798828#2 7798828#3 7798828#4 -7824723#4 7819117"/>
    </vehicle>
    <vehicle id="50" depart="50.00">
        <route edges="-7822669#2 7822669#2 55283363#0"/>
    </vehicle>
    <vehicle id="51" depart="51.00">
        <route edges="-7824723#7 -7824723#6 -7824723#5 -7824723#4 -7824723#3 -7824723#2 -7824723#1 -7824723#0 7825009#3 7825009#4 7825009#5 7824401#8 384343741#0 384343741#1"/>
    </vehicle>
    <vehicle id="53" depart="53.00">
        <route edges="54974128#0 54974128#1 54974128#2 384343741#0 384343741#1 384343741#2"/>
    </vehicle>
    <vehicle id="54" depart="54.00">
        <route edges="54974130#11 54974130#12 54974130#13 54974130#14 54974130#15 54974130#16 54974130#17 54974130#18 7824718#1 7824718#2 7824402 -70930942 -70930943 -384343742#1 -384343742#0 -7824401#8 -7824401#7 -7824401#6 -7824401#5 -7824401#4 7798828#0 7798828#1 7798828#2 7798828#3 7798828#4 -7824723#4 -7824723#3 -7824723#2"/>
    </vehicle>
    <vehicle id="55" depart="55.00">
        <route edges="-7802665 7824401#3 7824401#4 7824401#5 7824401#6 7824401#7 7824401#8 384343741#0 384343741#1"/>
    </vehicle>
    <vehicle id="56" depart="56.00">
        <route edges="-7820900#1 -7820900#0 -54149349#4 -54149349#3 -54149349#2 -54149349#1 -54149349#0 7824402 -70930942 -70930943 -384343742#1 -384343742#0 -7824401#8 7825009#6 7825009#7 7825009#8 7825009#9 7825009#10 -46689710#1 54974131"/>
    </vehicle>
    <vehicle id="57" depart="57.00">
        <route edges="7817859#0 -7817859#0 -54974130#1 -54974130#0 -59580411#3 -59580411#2 -59580411#1 -59580411#0 59580412#2 -7822547#1 7817871 -54149349#3 -54149349#2 -54149349#1 7806030#0"/>
    </vehicle>
    <vehicle id="58" depart="58.00">
        <route edges="7819810#0 7819810#1 7819810#2 7824722#6 7824722#7 7824722#8 7824722#9 7824722#10"/>
    </vehicle>
    <vehicle id="59" depart="59.00">
        <route edges="7800871 384343740#1 384343739 384343734#2 -7823124 46689710#1 54974128#0 54974128#1 54974128#2 384343742#0 384343742#1 70930943 70930942 184049917#0 184049917#1 54149355 406366694#0 406366694#1 406366694#2 7824722#0 7824722#1 7824722#2 -7825435#2 -7825435#1 -7825435#0 -7822960#0 -55284416#3 -7820055#6 -7820055#5 7826965 -7823379#2 -7823379#1 7820055#0 7823393"/>
    </vehicle>
    <vehicle id="60" depart="60.00">
        <route edges="7824722#9 -7824722#9 -7824722#8 -7824722#7 -7824722#6 -7824722#5 -7824722#4 -7824722#3 -7824722#2 -7824722#1 -7824722#0 7824718#0 7824718#1 7824718#2 7824402 -70930942 -70930943 -384343742#1 -384343742#0 -7824401#8 7825009#6 7825009#7 7825009#8 7825009#9 7800871"/>
    </vehicle>
    <vehicle id="61" depart="61.00">
        <route edges="-406366670#0 -191381234#1 -191381234#0 54974130#7 54974130#8 54974130#9 54974130#10 54974130#11 54974130#12 54974130#13 54974130#14 54974130#15 54974130#16 54974130#17 406366694#2 7824722#0 7822465#0 7822465#1 -7822669#2 -7822669#1 7821525"/>
    </vehicle>
    <vehicle id="62" depart="62.00">
        <route edges="7820900#0 -7820900#0 -54149349#4 -54149349#3 -54149349#2 -54149349#1 -54149349#0 7824402 -70930942 -70930943 -384343742#1 -384343742#0 -7824401#8 -7824401#7 -7824401#6 -7824401#5 -7824401#4 -7824401#3 -7824401#2 -7802673"/>
    </vehicle>
    <vehicle id="63" depart="63.00">
        <route edges="7825009#0 7825009#1 7825009#2 7825009#3 7825009#4 7825009#5 7824401#8 384343742#0 384343742#1 70930943 70930942 184049917#0 184049917#1 54149355 406366694#0 406366694#1 406366694#2 7824722#0 7824722#1 7824722#2 7824722#3 7824722#4 7824722#5 -7819810#2 -7819810#1 -7819810#0 7819810#0"/>
    </vehicle>
    <vehicle id="64" depart="64.00">
        <route edges="-70930945#0 7815043#2 7815043#3 -70930950#0 -70930948 70930951#0 70930951#1 54974130#14 54974130#15 54974130#16 54974130#17 406366694#2"/>
    </vehicle>
    <vehicle id="65" depart="65.00">
        <route edges="7819810#0 7819810#1 7819810#2 -7824722#5 -7824722#4 -7824722#3 -7824722#2 -7824722#1 -7824722#0 7824718#0 7824718#1 7824718#2 7824402 -70930942 -70930943 -384343742#1 -384343742#0 -7824401#8 7825009#6 7825009#7 -7808717#7 -7808717#6 -7808717#5 -7808717#4 -7808717#3 7816358"/>
    </vehicle>
    <vehicle id="66" depart="66.00">
        <route edges="7822465#1 -7822465#1 -7822465#0 7824722#1 7824722#2 7824722#3 -7820524#1 -7820524#0 -7804234 -7822564#1 -7820523 -55284416#0"/>
    </vehicle>
    <vehicle id="67" depart="67.00">
        <route edges="7814377 7825009#9 7825009#10 -46689710#1 54974131 54974127 54974130#1 54974130#2 54974130#3 -7800542#2 -7800542#1 -7800542#0"/>
    </vehicle>
    <vehicle id="68" depart="68.00">
        <route edges="-7808717#2 7808717#2 7808717#3 7808717#4 7808717#5 7808717#6 7808717#7 -79874580#1 54974128#1 54974128#2 384343741#0 384343741#1"/>
    </vehicle>
    <vehicle id="69" depart="69.00">
        <route edges="7816358 7808717#2 7808717#3 7808717#4 7808717#5 7808717#6 7808717#7 -79874580#1 54974128#1 54974128#2 384343742#0 384343742#1 70930943 70930942 184049917#0 184049917#1 54149355 406366694#0 406366694#1 406366694#2 7824722#0 7824722#1 7824722#2 7824722#3 -7824722#3"/>
    </vehicle>
    <vehicle id="71" depart="71.00">
        <route edges="7825435#0 7825435#1 7825435#2 -7824722#2 -7824722#1 -7824722#0 7824718#0 -54974130#18 -54974130#17 -54974130#16 -54974130#15 -54974130#14 -54974130#13 70930949#0 70930949#1 -70930948 -70930950#2"/>
    </vehicle>
    <vehicle id="72" depart="72.00">
        <route edges="-7807093#0 -7817859#0 -54974130#1 -54974127 -54974131 46689710#1 54974128#0 54974128#1 54974128#2 384343741#0 384343741#1"/>
    </vehicle>
    <vehicle id="73" depart="73.00">
        <route edges="-7815987#0 7808717#5 7808717#6 7808717#7 -79874580#1 54974128#1 54974128#2 384343742#0 384343742#1 70930943 70930942 184049917#0 184049917#1 54149355 406366694#0 406366694#1 406366694#2 7824722#0 7822465#0 7822465#1 -7822669#2 -7822669#1 7822669#1"/>
    </vehicle>
    <vehicle id="74" depart="74.00">
        <route edges="7808717#1 -7808717#1 -7808717#0 384343734#1 384343734#2 -7823124 46689710#1 54974128#0"/>
    </vehicle>
    <vehicle id="75" depart="75.00">
        <route edges="-7821525 7822669#1 7822669#2 -7822465#1 -7822465#0 -7824722#0 7824718#0 -54974130#18 -54974130#17 -54974130#16 -54974130#15 -54974130#14 -54974130#13 -54974130#12 -54974130#11 -54974130#10 -54974130#9 -54974130#8 -54974130#7 191381234#0 191381234#1 191381240#0 -406366670#2 -406366670#1"/>
    </vehicle>
    <vehicle id="76" depart="76.00">
        <route edges="7822960#1 7825435#1 7825435#2 7824722#3 7824722#4 7824722#5 7824722#6 7824722#7 7824722#8 7824722#9"/>
    </vehicle>
    <vehicle id="77" depart="77.00">
        <route edges="7820055#3 7820055#4 7820055#5 7820055#6 55284416#3 7822960#0 7822960#1 7825435#1 7825435#2 -7824722#2 -7824722#1 -7824722#0 7824718#0 -54974130#18 -54974130#17 -54974130#16 -54974130#15 -54974130#14 -54974130#13 -54974130#12 -54974130#11 -54974130#10 -54974130#9 -54974130#8 7821694#0 7821694#1 7821694#2 7821694#3 -7810766#2 7810763"/>
    </vehicle>
    <vehicle id="78" depart="78.00">
        <route edges="54974130#15 54974130#16 54974130#17 54974130#18 7824718#1 7824718#2 7824402 -70930942 -70930943 -384343742#1 -384343742#0 -7824401#8 -7824401#7 -7824401#6 -7824401#5 -7824401#4 -7824401#3 -7824401#2 -7824401#1 7802673"/>
    </vehicle>
    <vehicle id="79" depart="79.00">
        <route edges="7825009#4 7825009#5 7824401#8 384343742#0 384343742#1 70930943 70930942 184049917#0 184049917#1 54149355 406366694#0 406366694#1 406366694#2 7824722#0 7824722#1 7824722#2 -7825435#2 -7825435#1 -7825435#0 -7822960#0 55284416#4 7818578#0 -7818578#0"/>
    </vehicle>
    <vehicle id="80" depart="80.00">
        <route edges="-7824723#7 -7824723#6 -7824723#5 -7798828#4 -7798828#3 -7798828#2 -7798828#1 -7798828#0 7824401#4 -7824401#4"/>
    </vehicle>
    <vehicle id="81" depart="81.00">
        <route edges="436606557 436606556#1 7822008#1 7819810#0 7819810#1 7819810#2 -7824722#5 -7824722#4 -7824722#3 -7824722#2 -7824722#1 -7824722#0 7824718#0 -54974130#18 -54974130#17 -54974130#16 7810521#0 7810521#1 7810521#2 -194224943#1"/>
    </vehicle>
    <vehicle id="82" depart="82.00">
        <route edges="-7824723#7 -7824723#6 -7824723#5 -7824723#4 -7824723#3 -7824723#2 -7824723#1 -7824723#0 7825009#3 7825009#4 7825009#5 7824401#8 384343742#0 384343742#1 70930943 70930942 184049917#0 184049917#1 54149355 406366694#0 406366694#1 406366694#2 7824722#0 7824722#1 7824722#2 7824722#3 7824722#4 7824722#5 -7819810#2 -7819810#1 -7819810#0 7819810#0"/>
    </vehicle>
    <vehicle id="83" depart="83.00">
        <route edges="70930945#1 -194224944 -7810521#2 -7810521#1 -7810521#0 -54974130#15 -54974130#14 -54974130#13 -54974130#12 -54974130#11 -54974130#10 -54974130#9 -54974130#8 -54974130#7 -54974130#6 -54974130#5 -54974130#4 -54974130#3 -7817859#1 7817859#1"/>
    </vehicle>
    <vehicle id="84" depart="84.00">
        <route edges="373232849 332323749#1 332323749#2 384343734#0 384343734#1 384343734#2 -7823124 46689710#1 54974128#0 -79874580#0 59580412#1 59580412#2 -7822547#1 7817871 -54149349#3 7810389 -7810389"/>
    </vehicle>
    <vehicle id="85" depart="85.00">
        <route edges="7819810#0 7819810#1 7819810#2 -7824722#5 -7824722#4 -7824722#3 -7824722#2 -7824722#1 -7824722#0 7824718#0 -54974130#18 -54974130#17 -54974130#16 -54974130#15 -54974130#14 -54974130#13 -54974130#12 -54974130#11 -54974130#10 -54974130#9 -54974130#8 -54974130#7 -54974130#6 -54974130#5 -54974130#4"/>
    </vehicle>
    <vehicle id="86" depart="86.00">
        <route edges="7822072#1 -7820524#1 -7820524#0 -7804234 55284057 -7821147 55284416#2 -7820055#6 -7820055#5 7826965 -7823379#2 -7823379#1 7820055#0 7820055#1"/>
    </vehicle>
    <vehicle id="87" depart="87.00">
        <route edges="-7822669#2 7822669#2 -7822465#1 -7822465#0 -7824722#0 7824718#0 7824718#1 7824718#2 7824402 -70930942 -70930943 -384343742#1 7810516 384343741#1 384343741#2"/>
    </vehicle>
    <vehicle id="89" depart="89.00">
        <route edges="-7823379#3 -7823379#2 -7823379#1 7820055#0"/>
    </vehicle>
    <vehicle id="90" depart="90.00">
        <route edges="406371910#1 -406371909#1 -406371909#0 406366694#1 54974130#18 7824718#1 7824718#2 7824402 -70930942 -70930943 -384343742#1 -384343742#0 -7824401#8 -7824401#7 -7824401#6 -7824401#5 -7824401#4 7798828#0 7798828#1 7798828#2 7798828#3 7798828#4 -7824723#4 7819117"/>
    </vehicle>
    <vehicle id="91" depart="91.00">
        <route edges="7825009#1 7825009#2 7825009#3 7825009#4 7810518 -7824401#6 -7802656#1 -7813544"/>
    </vehicle>
    <vehicle id="92" depart="92.00">
        <route edges="-7824722#10 -7824722#9 -7824722#8 -7824722#7 -7824722#6 -7824722#5 -7824722#4 -7824722#3 -7824722#2 -7824722#1 7822465#0 7822465#1 55283363#0"/>
    </vehicle>
    <vehicle id="93" depart="93.00">
        <route edges="7825009#1 7825009#2 7825009#3 7825009#4 7825009#5 7825009#6 7825009#7 -7808717#7 -7808717#6 -7808717#5 -7808717#4 -7808717#3 -7808717#2 -7808717#1"/>
    </vehicle>
    <vehicle id="94" depart="94.00">
        <route edges="384343734#2 -7823124 46689710#1 54974128#0 54974128#1 54974128#2 384343741#0 384343741#1 384343741#2 7825009#0 7825009#1"/>
    </vehicle>
    <vehicle id="95" depart="95.00">
        <route edges="-7802673 7824401#1 7824401#2 7824401#3 7824401#4 7824401#5 7824401#6 7824401#7 7824401#8 384343742#0 384343742#1 70930943 70930942 184049917#0 184049917#1 54149355 406366694#0 406366694#1 54974130#18 7824718#1 7824718#2 7824402"/>
    </vehicle>
    <vehicle id="96" depart="96.00">
        <route edges="-7802665 7824401#3 7824401#4 7824401#5 7824401#6 7824401#7 7824401#8 384343742#0 384343742#1 70930943 70930942 184049917#0 184049917#1 54149355 406366694#0 406366694#1 406366694#2 7824722#0 7824722#1 7824722#2 7824722#3"/>
    </vehicle>
    <vehicle id="98" depart="98.00">
        <route edges="7802665 7824401#5 7824401#6 7802654 7825009#7 -7808717#7 -7808717#6 -7808717#5 -7808717#4 -7808717#3 -7808717#2 -7816358"/>
    </vehicle>
    <vehicle id="99" depart="99.00">
        <route edges="-7808717#6 7808717#6 7808717#7 -79874580#1 54974128#1 54974128#2 384343742#0 384343742#1 70930943 70930942 184049917#0 184049917#1 54149355 406366694#0 406366694#1 406366694#2 7824722#0 7824722#1 7824722#2 7824722#3 -7822072#1 7822669#0"/>
    </vehicle>
</routes>
