<?xml version="1.0" encoding="UTF-8"?>

<!-- generated on 03/03/17 17:52:22 by SUMO duarouter Version 0.25.0
<?xml version="1.0" encoding="UTF-8"?>

<configuration xmlns:xsi="http://www.w3.org/2001/XMLSchema-instance" xsi:noNamespaceSchemaLocation="http://sumo.dlr.de/xsd/duarouterConfiguration.xsd">

    <input>
        <net-file value="net.net.xml"/>
        <trip-files value="uah.trips.xml"/>
    </input>

    <output>
        <output-file value="uahroutes.rou.xml"/>
    </output>

    <processing>
        <ignore-errors value="true"/>
    </processing>

</configuration>
-->

<routes xmlns:xsi="http://www.w3.org/2001/XMLSchema-instance" xsi:noNamespaceSchemaLocation="http://sumo.dlr.de/xsd/routes_file.xsd">
    <vehicle id="0" depart="0.00">
        <route edges="-7808717#1 7808717#1 -7816358"/>
    </vehicle>
    <vehicle id="2" depart="2.00">
        <route edges="-406371910#1 406371910#1 -406371909#1 -406371909#0 406366694#1 -54974130#17 -54974130#16 -54974130#15 -54974130#14 -54974130#13 70930949#0 70930949#1"/>
    </vehicle>
    <vehicle id="3" depart="3.00">
        <route edges="-70930945#0 7815043#2 7815043#3 -70930950#0 -70930948 70930951#0 70930951#1 54974130#14 54974130#15 54974130#16 54974130#17 406366694#2 7824722#0 7824722#1 7824722#2 7824722#3 7824722#4 7824722#5 7824722#6 7824722#7 7824722#8 7824722#9"/>
    </vehicle>
    <vehicle id="4" depart="4.00">
        <route edges="7800871 384343740#1 384343739 384343734#2 -7823124 46689710#1 54974128#0 54974128#1 54974128#2 384343742#0 384343742#1 70930943 70930942 184049917#0 184049917#1 54149355 406366694#0 406366694#1 406366694#2 7824722#0 7822465#0 7822465#1 -7822669#2"/>
    </vehicle>
    <vehicle id="5" depart="5.00">
        <route edges="7820217 -55283363#0 -7822465#1 -7822465#0 -7824722#0 7824718#0 -54974130#18 -54974130#17 -54974130#16 -54974130#15 -54974130#14 -54974130#13 -54974130#12 -54974130#11 7808725#0 7808725#1"/>
    </vehicle>
    <vehicle id="6" depart="6.00">
        <route edges="-7813544 7798828#4 -7824723#4 -7824723#3 -7824723#2 -7824723#1 -7824723#0 7825009#3 7825009#4 7825009#5 7824401#8 384343742#0 384343742#1 70930943 70930942 184049917#0 184049917#1 54149355 406366694#0 406366694#1 406366694#2 7824722#0 7824722#1 7824722#2 7824722#3 -7820524#1 -7820524#0 -7804234 55284057 -7821147 7821147"/>
    </vehicle>
    <vehicle id="7" depart="7.00">
        <route edges="54974128#0 54974128#1 54974128#2 384343742#0 384343742#1 70930943 70930942 184049917#0 184049917#1 54149355 406366694#0 406366694#1 406366694#2 7824722#0 7824722#1 7824722#2 7824722#3 7824722#4 7824722#5 7824722#6 7824722#7 7824722#8 7824722#9 7824722#10"/>
    </vehicle>
    <vehicle id="8" depart="8.00">
        <route edges="7820055#6 55284416#3 7822960#0 -7822960#0"/>
    </vehicle>
    <vehicle id="9" depart="9.00">
        <route edges="7825009#1 7825009#2 7825009#3 7825009#4 7825009#5 7824401#8 384343742#0 384343742#1 70930943 70930942 184049917#0 184049917#1 54149355 406366694#0 406366694#1 406366694#2 7824722#0 7824722#1 7824722#2 7824722#3 -7820524#1 -7820524#0 -7804234 -7822564#1 -7822564#0"/>
    </vehicle>
    <vehicle id="10" depart="10.00">
        <route edges="-7817859#1 -7817859#0 -54974130#1 -54974127 -54974131 46689710#1 54974128#0 54974128#1 54974128#2 384343742#0 384343742#1 70930943 70930942 184049917#0 184049917#1 54149355 406366694#0"/>
    </vehicle>
    <vehicle id="12" depart="12.00">
        <route edges="384343734#1 384343734#2 -7823124 46689710#1 54974128#0 54974128#1 54974128#2 384343742#0 384343742#1 70930943 70930942 184049917#0 184049917#1 54149355 406366694#0 406366694#1 406366694#2 7824722#0 7824722#1 7824722#2 7824722#3 -7820524#1 -7820524#0 -7804234 -7822564#1 -7820523"/>
    </vehicle>
    <vehicle id="14" depart="14.00">
        <route edges="7808717#2 7808717#3 7808717#4 7808717#5 7808717#6 7808717#7 -79874580#1 54974128#1 54974128#2 384343742#0 384343742#1 70930943 70930942 184049917#0 184049917#1 54149355 406366694#0 406366694#1 406366694#2 7824722#0 7824722#1 -7825721"/>
    </vehicle>
    <vehicle id="15" depart="15.00">
        <route edges="-7824722#9 -7824722#8 -7824722#7 -7824722#6 -7824722#5 -7824722#4 -7824722#3 -7824722#2 7824722#2"/>
    </vehicle>
    <vehicle id="16" depart="16.00">
        <route edges="191381238#1 -191381238#1 -191381238#0 -7818573 -7821694#1 -7821694#0 54974130#8 54974130#9 54974130#10 54974130#11 54974130#12 54974130#13 54974130#14 54974130#15 54974130#16 54974130#17 406366694#2 7824722#0 7824722#1 7824722#2 -7825435#2 -7825435#1 -7825435#0 -7822960#0 55284416#4 7818578#0"/>
    </vehicle>
    <vehicle id="17" depart="17.00">
        <route edges="7810766#0 -7810766#0 59580411#2 59580411#3 7799783 -54974131 46689710#1 54974128#0 54974128#1 54974128#2 384343742#0 384343742#1 70930943 70930942 184049917#0 184049917#1 54149355 406366694#0 406366694#1 406366694#2 7824722#0 7824722#1 7824722#2 7824722#3 -7822072#1 -7822072#0"/>
    </vehicle>
    <vehicle id="18" depart="18.00">
        <route edges="54974128#0 54974128#1 54974128#2 384343742#0 384343742#1 70930943 70930942 184049917#0 184049917#1 54149355 406366694#0 406366694#1 406366694#2 7824722#0 7824722#1 7824722#2 7824722#3 -7820524#1 -7820524#0 -7804234 -7822564#1 -7820523"/>
    </vehicle>
    <vehicle id="19" depart="19.00">
        <route edges="7807093#1 7807093#2 -191381232 -191381238#0 -7818573 7821694#2 7821694#3 7821694#4 -59580411#0 59580412#2 59580412#3 59580412#0 79874580#0 79874580#1 7825009#8 7825009#9 7800871"/>
    </vehicle>
</routes>
